data/models/IEEE_123_FLISR_Case/ieee123_Power_seq_kVA.txt

SYMMETRICAL COMPONENT POWERS BY CIRCUIT ELEMENT (first 3 phases)                                     Excess Power

Element             Term    P1(kW)   Q1(kvar)       P2         Q2      P0      Q0       P_Norm      Q_Norm     P_Emerg    Q_Emerg

"Vsource.SOURCE"     1    -3482.7    -1358.0        0.0        0.0    -0.0     0.0
"Vsource.SOURCE"     2        0.0        0.0        0.0        0.0     0.0     0.0
"Line.SW1"           1     3482.7     1358.0       -0.0       -0.0     0.0    -0.0     1274.0      496.8      169.6       66.1
"Line.SW1"           2    -3482.7    -1358.0        0.0        0.0     0.0     0.0
"Line.L115"          1     3482.7     1358.0       -0.0       -0.0    -0.0    -0.0     3482.2     1357.8     3372.3     1315.0
"Line.L115"          2    -3464.7    -1319.4        0.9        1.0     0.7     1.4
"Line.L3"            1     3305.5     1239.7       -1.0       -0.8    -0.4    -1.6     3303.5     1237.1     3196.1     1196.9
"Line.L3"            2    -3293.3    -1213.4        1.6        1.4     1.0     2.6
"Line.L7"            1     3273.2     1203.2       -1.5       -1.4    -0.9    -2.5     3270.2     1199.2     3162.2     1159.6
"Line.L7"            2    -3265.2    -1185.9        1.9        1.7     1.3     3.1
"Line.L10"           1     3147.5     1126.2       -1.4       -1.6    -1.3    -2.2     3144.3     1122.2     3031.7     1082.0
"Line.L10"           2    -3136.3    -1102.2        1.8        2.0     1.6     2.8
"Line.SW2"           1     1949.3      406.8       -1.1       -1.0    -0.2    -1.8        0.0        0.0        0.0        0.0
"Line.SW2"           2    -1949.3     -406.8        1.1        1.0     0.2     1.8
"Line.L116"          1     1949.3      406.8       -1.1       -1.0    -0.2    -1.8     1947.3      403.9     1830.2      379.6
"Line.L116"          2    -1943.8     -395.3        1.3        1.2     0.4     2.1
"Line.L52"           1     1903.4      374.6       -1.0       -1.0    -0.3    -1.5     1901.6      371.9     1780.3      348.2
"Line.L52"           2    -1900.8     -369.1        1.0        1.1     0.3     1.6
"Line.L53"           1     1860.3      348.3       -0.7       -0.9    -0.2    -1.0     1858.8      346.3     1732.6      322.8
"Line.L53"           2    -1858.8     -345.0        0.7        0.9     0.2     1.0
"Line.L55"           1     1820.7      325.8       -0.5       -1.0    -0.5    -0.8     1819.0      323.9     1691.8      301.2
"Line.L55"           2    -1816.3     -317.1        0.5        1.1     0.5     0.8
"Line.L58"           1     1777.2      297.9       -0.5       -1.5    -1.1    -1.1     1775.0      295.2     1650.9      274.6
"Line.L58"           2    -1768.3     -280.1        0.4        1.6     1.1     1.2
"Line.SW4"           1     1394.9       71.3       -1.1       -1.1    -0.6    -1.8        0.0        0.0        0.0        0.0
"Line.SW4"           2    -1394.9      -71.3        1.1        1.1     0.6     1.8
"Line.L117"          1     1394.9       71.3       -1.1       -1.1    -0.6    -1.8     1392.6       68.4     1275.3       62.6
"Line.L117"          2    -1392.3      -66.2        1.0        1.1     0.7     1.9
"Line.L67"           1      846.8     -211.9        0.4        0.3    -0.2     1.2      846.4     -210.3      721.6     -179.3
"Line.L67"           2     -846.0      213.5       -0.4       -0.3     0.2    -1.1
"Line.L73"           1      728.7     -271.3       -0.9        0.8     1.6    -0.1      728.8     -270.4      616.0     -228.6
"Line.L73"           2     -728.3      272.3        0.9       -0.8    -1.6     0.2
"Line.SW11"          1      256.4       -8.7       -0.5        0.8     1.6    -0.1        0.0        0.0        0.0        0.0
"Line.SW11"          2     -256.4        8.7        0.5       -0.8    -1.6     0.1
"Line.L77"           1      256.4       -8.7       -0.5        0.8     1.6    -0.1      257.1       -8.0      171.9       -5.3
"Line.L77"           2     -256.3        9.1        0.5       -0.7    -1.5     0.2
"Line.L86"           1      236.6      -18.7       -0.5        0.5     1.2    -0.3      236.8      -18.5      144.5      -11.3
"Line.L86"           2     -236.5       18.9        0.5       -0.5    -1.2     0.4
"Line.L88"           1      156.8      -14.0        0.0       -0.0     1.2    -0.3      157.6      -14.3       64.9       -5.9
"Line.L88"           2     -156.8       14.0       -0.0        0.0    -1.2     0.4
"Line.L90"           1      118.6       13.6       -0.3       -0.3     0.7     0.2      118.4       13.4        4.1        0.5
"Line.L90"           2     -118.6      -13.6        0.3        0.3    -0.7    -0.2
"Line.L92"           1       78.9       39.9       -0.4        0.1     0.5    -0.5       78.5       39.3        0.0        0.0
"Line.L92"           2      -78.9      -39.9        0.4       -0.1    -0.5     0.5
"Line.L94"           1       39.4       19.5       -0.1        0.4     0.7     0.1       39.8       19.9        0.0        0.0
"Line.L94"           2      -39.4      -19.5        0.1       -0.4    -0.7    -0.1
"Line.SW7"           1        0.0       -0.0        0.0        0.0     0.0     0.0        0.0        0.0        0.0        0.0
"Line.SW7"           2        0.0       -0.0        0.0       -0.0     0.0    -0.0
"Line.L17"           1        0.0        0.0        0.0        0.0     0.0     0.0       19.8        9.9        0.0        0.0
"Line.L17"           2        0.0        0.0        0.0        0.0     0.0     0.0
"Line.L16"           1        0.0        0.0        0.0        0.0     0.0     0.0       39.8       19.9        0.0        0.0
"Line.L16"           2        0.0        0.0        0.0        0.0     0.0     0.0
"Line.L34"           1        0.0        0.0        0.0        0.0     0.0     0.0       59.9       30.0       18.2        9.1
"Line.L34"           2        0.0        0.0        0.0        0.0     0.0     0.0
"Line.L95"           1        0.0        0.0        0.0        0.0     0.0     0.0       19.8        9.9        0.0        0.0
"Line.L95"           2        0.0        0.0        0.0        0.0     0.0     0.0
"Line.L93"           1        0.0        0.0        0.0        0.0     0.0     0.0       38.7       19.4        0.0        0.0
"Line.L93"           2        0.0        0.0        0.0        0.0     0.0     0.0
"Line.L91"           1        0.0        0.0        0.0        0.0     0.0     0.0       39.8      -25.9        1.4       -0.9
"Line.L91"           2        0.0        0.0        0.0        0.0     0.0     0.0
"Line.L89"           1        0.0        0.0        0.0        0.0     0.0     0.0       38.8      -27.8        1.0       -0.7
"Line.L89"           2        0.0        0.0        0.0        0.0     0.0     0.0
"Line.L87"           1        0.0        0.0        0.0        0.0     0.0     0.0       38.9      -24.4        0.9       -0.5
"Line.L87"           2        0.0        0.0        0.0        0.0     0.0     0.0
"Line.L76"           1      236.8     -435.8        0.1       -0.1     0.0    -0.1      236.6     -435.4      172.3     -317.0
"Line.L76"           2     -236.5      436.5       -0.1        0.1    -0.0     0.1
"Line.L78"           1      197.1     -455.8        0.1       -0.5    -0.7    -0.4      196.3     -456.1      144.4     -335.4
"Line.L78"           2     -197.0      456.0       -0.1        0.5     0.7     0.4
"Line.L80"           1      161.1     -474.6        0.4       -0.3    -0.6     0.3      160.7     -474.0      118.2     -348.6
"Line.L80"           2     -160.7      475.5       -0.4        0.3     0.6    -0.3
"Line.L81"           1      121.3     -494.8        0.5       -0.7    -1.2    -0.0      120.3     -494.9       91.1     -374.5
"Line.L81"           2     -121.1      495.1       -0.5        0.7     1.3     0.1
"Line.L83"           1        0.0        0.0        0.0        0.0     0.0     0.0       60.0       30.1       19.0        9.5
"Line.L83"           2        0.0        0.0        0.0        0.0     0.0     0.0
"Line.L85"           1        0.0        0.0        0.0        0.0     0.0     0.0       39.8       19.9        0.0        0.0
"Line.L85"           2        0.0        0.0        0.0        0.0     0.0     0.0
"Line.L82"           1       60.6     -525.0       -0.2       -0.4    -0.3    -0.7       60.1     -525.5       45.4     -397.6
"Line.L82"           2      -60.4      525.5        0.2        0.4     0.3     0.7
"Line.L84"           1       20.4     -546.3        0.2       -0.2    -0.3     0.1       20.2     -545.7       15.3     -412.9
"Line.L84"           2      -20.1      546.9       -0.2        0.2     0.3    -0.1
"Line.L79"           1       35.9       18.7       -0.3       -0.3    -0.1    -0.7       35.3       17.7        0.0        0.0
"Line.L79"           2      -35.9      -18.7        0.3        0.3     0.1     0.7
"Line.L72"           1        0.0        0.0        0.0        0.0     0.0     0.0      116.6       58.5       75.7       38.0
"Line.L72"           2        0.0        0.0        0.0        0.0     0.0     0.0
"Line.L74"           1        0.0        0.0        0.0        0.0     0.0     0.0       76.4       38.3       35.5       17.8
"Line.L74"           2        0.0        0.0        0.0        0.0     0.0     0.0
"Line.L75"           1        0.0        0.0        0.0        0.0     0.0     0.0       39.8       19.9        0.0        0.0
"Line.L75"           2        0.0        0.0        0.0        0.0     0.0     0.0
"Line.L66"           1        0.0        0.0        0.0        0.0     0.0     0.0      116.7       58.6       76.6       38.4
"Line.L66"           2        0.0        0.0        0.0        0.0     0.0     0.0
"Line.L69"           1        0.0        0.0        0.0        0.0     0.0     0.0       97.0       48.7       56.9       28.5
"Line.L69"           2        0.0        0.0        0.0        0.0     0.0     0.0
"Line.L70"           1        0.0        0.0        0.0        0.0     0.0     0.0       58.0       29.0       18.0        9.0
"Line.L70"           2        0.0        0.0        0.0        0.0     0.0     0.0
"Line.L71"           1        0.0        0.0        0.0        0.0     0.0     0.0       38.5       19.3        0.0        0.0
"Line.L71"           2        0.0        0.0        0.0        0.0     0.0     0.0
"Line.L68"           1      427.3      216.3       -0.3       -0.5    -0.3    -0.8      426.2      214.7      325.2      163.8
"Line.L68"           2     -427.1     -215.9        0.3        0.5     0.3     0.9
"Line.L96"           1      115.7       58.0       -0.0       -0.0     0.1    -0.0      115.2       57.7        0.0        0.0
"Line.L96"           2     -115.7      -58.0        0.0        0.0    -0.1     0.0
"Line.L97"           1       76.2       37.4        0.4        0.3     0.1     0.7       76.3       38.2        0.0        0.0
"Line.L97"           2      -76.2      -37.3       -0.3       -0.3    -0.1    -0.7
"Line.L98"           1       36.8       18.1        0.4       -0.2    -0.6     0.4       36.4       18.2        0.0        0.0
"Line.L98"           2      -36.8      -18.1       -0.4        0.2     0.6    -0.4
"Line.SW5"           1      311.4      157.9       -0.3       -0.5    -0.4    -0.8        0.0        0.0        0.0        0.0
"Line.SW5"           2     -311.4     -157.9        0.3        0.5     0.4     0.8
"Line.L118"          1      311.4      157.9       -0.3       -0.5    -0.4    -0.8      310.3      156.3      214.7      108.2
"Line.L118"          2     -311.3     -157.7        0.3        0.5     0.4     0.8
"Line.L100"          1        0.0        0.0        0.0        0.0     0.0     0.0      100.1       50.2       59.2       29.7
"Line.L100"          2        0.0        0.0        0.0        0.0     0.0     0.0
"Line.L102"          1        0.0        0.0        0.0        0.0     0.0     0.0       80.0       40.1       39.2       19.6
"Line.L102"          2        0.0        0.0        0.0        0.0     0.0     0.0
"Line.L103"          1        0.0        0.0        0.0        0.0     0.0     0.0       39.9       20.0        0.0        0.0
"Line.L103"          2        0.0        0.0        0.0        0.0     0.0     0.0
"Line.L101"          1      210.5      108.0       -1.4       -0.1     1.2    -2.0      210.0      105.8      145.3       73.2
"Line.L101"          2     -210.4     -107.9        1.4        0.1    -1.2     2.1
"Line.L104"          1        0.0        0.0        0.0        0.0     0.0     0.0       79.9       40.0       38.1       19.1
"Line.L104"          2        0.0        0.0        0.0        0.0     0.0     0.0
"Line.L106"          1        0.0        0.0        0.0        0.0     0.0     0.0       39.8       19.9        0.0        0.0
"Line.L106"          2        0.0        0.0        0.0        0.0     0.0     0.0
"Line.L105"          1      131.6       69.3       -1.3       -1.1    -0.3    -2.7      129.8       65.5       89.9       45.3
"Line.L105"          2     -131.6      -69.3        1.3        1.1     0.4     2.8
"Line.L107"          1        0.0        0.0        0.0        0.0     0.0     0.0      129.7       65.3       89.8       45.2
"Line.L107"          2        0.0        0.0        0.0        0.0     0.0     0.0
"Line.L109"          1        0.0        0.0        0.0        0.0     0.0     0.0       90.8       45.6       51.0       25.6
"Line.L109"          2        0.0        0.0        0.0        0.0     0.0     0.0
"Line.L111"          1        0.0        0.0        0.0        0.0     0.0     0.0       71.5       35.8       31.8       15.9
"Line.L111"          2        0.0        0.0        0.0        0.0     0.0     0.0
"Line.L112"          1        0.0        0.0        0.0        0.0     0.0     0.0       53.3       26.7       13.6        6.8
"Line.L112"          2        0.0        0.0        0.0        0.0     0.0     0.0
"Line.L113"          1        0.0        0.0        0.0        0.0     0.0     0.0       18.8        9.4        0.0        0.0
"Line.L113"          2        0.0        0.0        0.0        0.0     0.0     0.0
"Line.L110"          1        0.0        0.0        0.0        0.0     0.0     0.0       18.9        9.5        0.0        0.0
"Line.L110"          2        0.0        0.0        0.0        0.0     0.0     0.0
"Line.L108"          1        0.0       -0.0       -0.0       -0.0    -0.0    -0.0        0.0        0.0        0.0        0.0
"Line.L108"          2       -0.0        0.0       -0.0        0.0    -0.0     0.0
"Line.SW10"          1        0.0        0.0        0.0        0.0     0.0    -0.0        0.0        0.0        0.0        0.0
"Line.SW10"          2        0.0       -0.0        0.0       -0.0     0.0    -0.0
"Line.L64"           1      203.4      126.4        0.8       -0.8    -1.1     0.7      202.9      126.1      138.1       85.8
"Line.L64"           2     -203.1     -126.4       -0.8        0.8     1.2    -0.6
"Line.L65"           1       75.6       34.8        0.7       -0.5    -1.2     0.6       74.9       34.9       33.7       15.7
"Line.L65"           2      -75.6      -34.9       -0.7        0.5     1.2    -0.6
"Line.L63"           1      276.1      159.4        0.9        0.0     0.1     1.3      276.5      160.4      188.3      109.2
"Line.L63"           2     -275.6     -159.2       -0.8       -0.0    -0.0    -1.2
"Line.L62"           1      316.0      180.1        0.5       -0.2     0.0     0.6      316.0      180.1      215.2      122.6
"Line.L62"           2     -315.8     -180.0       -0.5        0.2    -0.0    -0.6
"Line.L61"           1      353.5      198.5        0.9       -0.4    -0.5     1.0      353.4      198.8      265.7      149.4
"Line.L61"           2     -353.0     -198.3       -0.9        0.4     0.5    -1.0
"Line.L60"           1       -0.0       -0.0        0.0        0.0     0.0    -0.0        0.0        0.0        0.0        0.0
"Line.L60"           2       -0.0       -0.0        0.0        0.0    -0.0    -0.0
"Line.L57"           1        0.0        0.0        0.0        0.0     0.0     0.0       39.5       19.8        0.0        0.0
"Line.L57"           2        0.0        0.0        0.0        0.0     0.0     0.0
"Line.L59"           1        0.0        0.0        0.0        0.0     0.0     0.0       19.8        9.9        0.0        0.0
"Line.L59"           2        0.0        0.0        0.0        0.0     0.0     0.0
"Line.L54"           1       38.1       19.1       -0.2        0.1     0.2    -0.2       37.8       18.9        0.0        0.0
"Line.L54"           2      -38.1      -19.2        0.2       -0.1    -0.2     0.2
"Line.L56"           1       19.7        9.7        0.0        0.2     0.3     0.1       19.8        9.9        0.0        0.0
"Line.L56"           2      -19.7       -9.7       -0.0       -0.2    -0.3    -0.1
"Line.L13"           1     1088.5      646.5       -1.3       -0.6    -0.4    -1.7     1086.4      644.0      991.8      587.9
"Line.L13"           2    -1083.7     -637.1        1.3        0.7     0.5     2.1
"Line.SW3"           1      731.5      458.4       -0.8        0.4     0.8    -0.4        0.0        0.0        0.0        0.0
"Line.SW3"           2     -731.5     -458.4        0.8       -0.4    -0.8     0.4
"Line.L114"          1      731.5      458.4       -0.8        0.4     0.8    -0.4      731.0      458.0      624.5      391.3
"Line.L114"          2     -730.6     -456.4        0.8       -0.3    -0.8     0.5
"Line.L35"           1        0.0        0.0        0.0        0.0     0.0     0.0       75.5       37.8        0.0        0.0
"Line.L35"           2        0.0        0.0        0.0        0.0     0.0     0.0
"Line.L38"           1        0.0        0.0        0.0        0.0     0.0     0.0       39.5       19.8        0.0        0.0
"Line.L38"           2        0.0        0.0        0.0        0.0     0.0     0.0
"Line.L39"           1        0.0        0.0        0.0        0.0     0.0     0.0       19.8        9.9        0.0        0.0
"Line.L39"           2        0.0        0.0        0.0        0.0     0.0     0.0
"Line.L37"           1        0.0        0.0        0.0        0.0     0.0     0.0       36.0       18.0        0.0        0.0
"Line.L37"           2        0.0        0.0        0.0        0.0     0.0     0.0
"Line.L36"           1      614.5      398.3       -0.2       -0.0     0.3    -0.1      614.0      397.8      501.7      325.0
"Line.L36"           2     -614.0     -397.3        0.2        0.0    -0.3     0.1
"Line.L40"           1        0.0        0.0        0.0        0.0     0.0     0.0       19.8        9.9        0.0        0.0
"Line.L40"           2        0.0        0.0        0.0        0.0     0.0     0.0
"Line.L41"           1      593.9      387.4       -0.4        0.1     0.5    -0.3      593.6      386.9      485.0      316.1
"Line.L41"           2     -593.5     -386.5        0.4       -0.1    -0.5     0.3
"Line.L42"           1        0.0        0.0        0.0        0.0     0.0     0.0       38.4       19.2        0.0        0.0
"Line.L42"           2        0.0        0.0        0.0        0.0     0.0     0.0
"Line.L43"           1      535.3      357.3       -0.2       -0.2     0.0    -0.2      534.5      356.6      427.1      285.0
"Line.L43"           2     -535.0     -356.7        0.2        0.2    -0.0     0.2
"Line.L44"           1        0.0        0.0        0.0        0.0     0.0     0.0       38.6       19.3        0.0        0.0
"Line.L44"           2        0.0        0.0        0.0        0.0     0.0     0.0
"Line.L46"           1        0.0        0.0        0.0        0.0     0.0     0.0       19.7        9.8        0.0        0.0
"Line.L46"           2        0.0        0.0        0.0        0.0     0.0     0.0
"Line.L45"           1      495.7      336.5        0.1        0.0     0.1     0.4      495.4      336.6      385.2      261.7
"Line.L45"           2     -495.4     -335.8       -0.1       -0.0    -0.1    -0.4
"Line.L47"           1      194.8      139.2        0.0        0.0     0.0     0.0      194.3      138.8       83.9       59.9
"Line.L47"           2     -194.8     -139.1       -0.0       -0.0    -0.0    -0.0
"Line.L48"           1      199.5      124.4        0.1        0.0     0.1     0.4      199.1      124.5       91.1       57.0
"Line.L48"           2     -199.5     -124.3       -0.1       -0.0    -0.1    -0.4
"Line.L49"           1       60.2       30.1        0.2       -0.3    -0.5     0.1       59.6       29.8        0.0        0.0
"Line.L49"           2      -60.2      -30.1       -0.2        0.3     0.5    -0.1
"Line.L50"           1       20.1       10.3       -0.2       -0.1    -0.1    -0.3       19.7        9.8        0.0        0.0
"Line.L50"           2      -20.1      -10.3        0.2        0.1     0.1     0.3
"Line.L51"           1        0.0       -0.0       -0.0       -0.0    -0.0    -0.0        0.0        0.0        0.0        0.0
"Line.L51"           2       -0.0        0.0       -0.0        0.0    -0.0     0.0
"Line.SW9"           1        0.0       -0.0        0.0        0.0     0.0    -0.0        0.0        0.0        0.0        0.0
"Line.SW9"           2        0.0       -0.0        0.0       -0.0     0.0    -0.0
"Line.L32"           1        0.0       -0.0       -0.0        0.0     0.0    -0.0        0.0        0.0        0.0        0.0
"Line.L32"           2       -0.0        0.0       -0.0        0.0    -0.0     0.0
"Line.L31"           1       40.3       19.8        0.3       -0.2    -0.6     0.4       39.8       19.9        0.0        0.0
"Line.L31"           2      -40.3      -19.8       -0.3        0.2     0.7    -0.4
"Line.L30"           1       77.0       38.9        0.0       -0.4    -0.6    -0.3       76.0       38.0        0.0        0.0
"Line.L30"           2      -77.0      -38.9       -0.0        0.4     0.7     0.3
"Line.L26"           1      115.5       58.8       -0.3       -0.5    -0.7    -1.0      114.2       57.2       51.6       25.8
"Line.L26"           2     -115.5      -58.8        0.3        0.5     0.7     1.0
"Line.L25"           1        0.0        0.0        0.0        0.0     0.0     0.0       77.8       39.0        0.0        0.0
"Line.L25"           2        0.0        0.0        0.0        0.0     0.0     0.0
"Line.L28"           1        0.0        0.0        0.0        0.0     0.0     0.0       39.8       19.9        0.0        0.0
"Line.L28"           2        0.0        0.0        0.0        0.0     0.0     0.0
"Line.L33"           1        0.0        0.0        0.0        0.0     0.0     0.0       19.8        9.9        0.0        0.0
"Line.L33"           2        0.0        0.0        0.0        0.0     0.0     0.0
"Line.L27"           1        0.0        0.0        0.0        0.0     0.0     0.0       37.9       19.0        0.0        0.0
"Line.L27"           2        0.0        0.0        0.0        0.0     0.0     0.0
"Line.L29"           1        0.0        0.0        0.0        0.0     0.0     0.0       37.9       19.0        0.0        0.0
"Line.L29"           2        0.0        0.0        0.0        0.0     0.0     0.0
"Line.L24"           1      194.4       98.8       -0.3       -0.9    -1.3    -1.2      192.4       96.5      122.7       61.5
"Line.L24"           2     -194.3      -98.7        0.3        0.9     1.3     1.3
"Line.L23"           1        0.0        0.0        0.0        0.0     0.0     0.0       39.8       19.9        0.0        0.0
"Line.L23"           2        0.0        0.0        0.0        0.0     0.0     0.0
"Line.SW6"           1      234.7      118.6       -0.0       -1.1    -1.8    -0.8        0.0        0.0        0.0        0.0
"Line.SW6"           2     -234.7     -118.6        0.0        1.1     1.8     0.8
"Line.L22"           1      234.8      118.7        0.0       -1.0    -1.8    -0.7      232.6      116.8      152.6       76.6
"Line.L22"           2     -234.7     -118.6        0.0        1.1     1.8     0.8
"Line.L21"           1        0.0        0.0        0.0        0.0     0.0     0.0       38.8       19.4        0.0        0.0
"Line.L21"           2        0.0        0.0        0.0        0.0     0.0     0.0
"Line.L19"           1      273.2      137.9        0.0       -0.7    -1.2    -0.4      271.6      136.5      178.2       89.6
"Line.L19"           2     -273.2     -137.7       -0.0        0.7     1.2     0.5
"Line.L18"           1        0.0        0.0        0.0        0.0     0.0     0.0       78.0       39.1       37.2       18.6
"Line.L18"           2        0.0        0.0        0.0        0.0     0.0     0.0
"Line.L20"           1        0.0        0.0        0.0        0.0     0.0     0.0       37.9       19.0        0.0        0.0
"Line.L20"           2        0.0        0.0        0.0        0.0     0.0     0.0
"Line.L12"           1        0.0        0.0        0.0        0.0     0.0     0.0       98.0       49.0       56.3       28.2
"Line.L12"           2        0.0        0.0        0.0        0.0     0.0     0.0
"Line.L9"            1        0.0        0.0        0.0        0.0     0.0     0.0       96.9       48.6       55.4       27.8
"Line.L9"            2        0.0        0.0        0.0        0.0     0.0     0.0
"Line.L11"           1        0.0        0.0        0.0        0.0     0.0     0.0       56.8       28.5       15.3        7.7
"Line.L11"           2        0.0        0.0        0.0        0.0     0.0     0.0
"Line.L15"           1        0.0        0.0        0.0        0.0     0.0     0.0       19.2        9.6        0.0        0.0
"Line.L15"           2        0.0        0.0        0.0        0.0     0.0     0.0
"Line.L14"           1        0.0        0.0        0.0        0.0     0.0     0.0       37.3       18.7        0.0        0.0
"Line.L14"           2        0.0        0.0        0.0        0.0     0.0     0.0
"Line.L8"            1        0.0        0.0        0.0        0.0     0.0     0.0       19.8        9.9        0.0        0.0
"Line.L8"            2        0.0        0.0        0.0        0.0     0.0     0.0
"Line.L2"            1        0.0        0.0        0.0        0.0     0.0     0.0       98.8       49.5       56.5       28.3
"Line.L2"            2        0.0        0.0        0.0        0.0     0.0     0.0
"Line.L5"            1        0.0        0.0        0.0        0.0     0.0     0.0       58.7       29.4       16.4        8.2
"Line.L5"            2        0.0        0.0        0.0        0.0     0.0     0.0
"Line.L6"            1        0.0        0.0        0.0        0.0     0.0     0.0       38.9       19.4        0.0        0.0
"Line.L6"            2        0.0        0.0        0.0        0.0     0.0     0.0
"Line.L4"            1        0.0        0.0        0.0        0.0     0.0     0.0       39.8       19.9        0.0        0.0
"Line.L4"            2        0.0        0.0        0.0        0.0     0.0     0.0
"Line.L1"            1        0.0        0.0        0.0        0.0     0.0     0.0       19.8        9.9        0.0        0.0
"Line.L1"            2        0.0        0.0        0.0        0.0     0.0     0.0
"Transformer.REG4"   1        0.0        0.0        0.0        0.0    -0.0     0.0        0.0        0.0        0.0        0.0
"Transformer.REG4"   2        0.0       -0.0       -0.0       -0.0     0.0     0.0
"Transformer.REG3"   1       -0.0        0.0       -0.0        0.0    -0.0     0.0        0.0        0.0        0.0        0.0
"Transformer.REG3"   2        0.0       -0.0        0.0       -0.0     0.0    -0.0
"Transformer.REG2A"  1        0.0        0.0        0.0        0.0     0.0     0.0        0.0        0.0        0.0        0.0
"Transformer.REG2A"  2        0.0        0.0        0.0        0.0     0.0     0.0
"Capacitor.C92C"     1        0.0        0.0        0.0        0.0     0.0     0.0        0.0        0.0        0.0        0.0
"Capacitor.C92C"     2        0.0        0.0        0.0        0.0     0.0     0.0
"Capacitor.C90B"     1        0.0        0.0        0.0        0.0     0.0     0.0        0.0        0.0        0.0        0.0
"Capacitor.C90B"     2        0.0        0.0        0.0        0.0     0.0     0.0
"Capacitor.C88A"     1        0.0        0.0        0.0        0.0     0.0     0.0        0.0        0.0        0.0        0.0
"Capacitor.C88A"     2        0.0        0.0        0.0        0.0     0.0     0.0
"Capacitor.C83"      1        0.0     -556.8       -0.0       -0.1     0.0    -0.2        0.0        0.0        0.0        0.0
"Capacitor.C83"      2        0.0        0.0        0.0        0.0     0.0     0.0
"Transformer.REG1A"  1       -0.0       -0.0        0.0       -0.0    -0.0    -0.0        0.0        0.0        0.0        0.0
"Transformer.REG1A"  2        0.0        0.0       -0.0        0.0     0.0     0.0
"Load.S1A"           1        0.0        0.0        0.0        0.0     0.0     0.0
"Load.S7A"           1        0.0        0.0        0.0        0.0     0.0     0.0
"Load.S52A"          1        0.0        0.0        0.0        0.0     0.0     0.0
"Load.S53A"          1        0.0        0.0        0.0        0.0     0.0     0.0
"Load.S60A"          1        0.0        0.0        0.0        0.0     0.0     0.0
"Load.S76A"          1        0.0        0.0        0.0        0.0     0.0     0.0
"Load.S76B"          1        0.0        0.0        0.0        0.0     0.0     0.0
"Load.S76C"          1        0.0        0.0        0.0        0.0     0.0     0.0
"Load.S86B"          1        0.0        0.0        0.0        0.0     0.0     0.0
"Load.S87B"          1        0.0        0.0        0.0        0.0     0.0     0.0
"Load.S95B"          1        0.0        0.0        0.0        0.0     0.0     0.0
"Load.S17C"          1        0.0        0.0        0.0        0.0     0.0     0.0
"Load.S16C"          1        0.0        0.0        0.0        0.0     0.0     0.0
"Load.S34C"          1        0.0        0.0        0.0        0.0     0.0     0.0
"Load.S96B"          1        0.0        0.0        0.0        0.0     0.0     0.0
"Load.S94A"          1        0.0        0.0        0.0        0.0     0.0     0.0
"Load.S92C"          1        0.0        0.0        0.0        0.0     0.0     0.0
"Load.S90B"          1        0.0        0.0        0.0        0.0     0.0     0.0
"Load.S88A"          1        0.0        0.0        0.0        0.0     0.0     0.0
"Load.S77B"          1        0.0        0.0        0.0        0.0     0.0     0.0
"Load.S80B"          1        0.0        0.0        0.0        0.0     0.0     0.0
"Load.S84C"          1        0.0        0.0        0.0        0.0     0.0     0.0
"Load.S85C"          1        0.0        0.0        0.0        0.0     0.0     0.0
"Load.S82A"          1        0.0        0.0        0.0        0.0     0.0     0.0
"Load.S83C"          1        0.0        0.0        0.0        0.0     0.0     0.0
"Load.S79A"          1        0.0        0.0        0.0        0.0     0.0     0.0
"Load.S73C"          1        0.0        0.0        0.0        0.0     0.0     0.0
"Load.S74C"          1        0.0        0.0        0.0        0.0     0.0     0.0
"Load.S75C"          1        0.0        0.0        0.0        0.0     0.0     0.0
"Load.S68A"          1        0.0        0.0        0.0        0.0     0.0     0.0
"Load.S69A"          1        0.0        0.0        0.0        0.0     0.0     0.0
"Load.S70A"          1        0.0        0.0        0.0        0.0     0.0     0.0
"Load.S71A"          1        0.0        0.0        0.0        0.0     0.0     0.0
"Load.S98A"          1        0.0        0.0        0.0        0.0     0.0     0.0
"Load.S99B"          1        0.0        0.0        0.0        0.0     0.0     0.0
"Load.S100C"         1        0.0        0.0        0.0        0.0     0.0     0.0
"Load.S102C"         1        0.0        0.0        0.0        0.0     0.0     0.0
"Load.S103C"         1        0.0        0.0        0.0        0.0     0.0     0.0
"Load.S104C"         1        0.0        0.0        0.0        0.0     0.0     0.0
"Load.S106B"         1        0.0        0.0        0.0        0.0     0.0     0.0
"Load.S107B"         1        0.0        0.0        0.0        0.0     0.0     0.0
"Load.S109A"         1        0.0        0.0        0.0        0.0     0.0     0.0
"Load.S112A"         1        0.0        0.0        0.0        0.0     0.0     0.0
"Load.S113A"         1        0.0        0.0        0.0        0.0     0.0     0.0
"Load.S114A"         1        0.0        0.0        0.0        0.0     0.0     0.0
"Load.S111A"         1        0.0        0.0        0.0        0.0     0.0     0.0
"Load.S64B"          1        0.0        0.0        0.0        0.0     0.0     0.0
"Load.S65A"          1        0.0        0.0        0.0        0.0     0.0     0.0
"Load.S65B"          1        0.0        0.0        0.0        0.0     0.0     0.0
"Load.S65C"          1        0.0        0.0        0.0        0.0     0.0     0.0
"Load.S66C"          1        0.0        0.0        0.0        0.0     0.0     0.0
"Load.S63A"          1        0.0        0.0        0.0        0.0     0.0     0.0
"Load.S62C"          1        0.0        0.0        0.0        0.0     0.0     0.0
"Load.S58B"          1        0.0        0.0        0.0        0.0     0.0     0.0
"Load.S59B"          1        0.0        0.0        0.0        0.0     0.0     0.0
"Load.S55A"          1        0.0        0.0        0.0        0.0     0.0     0.0
"Load.S56B"          1        0.0        0.0        0.0        0.0     0.0     0.0
"Load.S35A"          1        0.0        0.0        0.0        0.0     0.0     0.0
"Load.S38B"          1        0.0        0.0        0.0        0.0     0.0     0.0
"Load.S39B"          1        0.0        0.0        0.0        0.0     0.0     0.0
"Load.S37A"          1        0.0        0.0        0.0        0.0     0.0     0.0
"Load.S41C"          1        0.0        0.0        0.0        0.0     0.0     0.0
"Load.S42A"          1        0.0        0.0        0.0        0.0     0.0     0.0
"Load.S43B"          1        0.0        0.0        0.0        0.0     0.0     0.0
"Load.S45A"          1        0.0        0.0        0.0        0.0     0.0     0.0
"Load.S46A"          1        0.0        0.0        0.0        0.0     0.0     0.0
"Load.S47"           1      101.0       72.2        0.0       -0.0     0.0     0.0
"Load.S48"           1      194.8      139.1        0.0        0.0     0.0     0.0
"Load.S49A"          1        0.0        0.0        0.0        0.0     0.0     0.0
"Load.S49B"          1        0.0        0.0        0.0        0.0     0.0     0.0
"Load.S49C"          1        0.0        0.0        0.0        0.0     0.0     0.0
"Load.S50C"          1        0.0        0.0        0.0        0.0     0.0     0.0
"Load.S51A"          1        0.0        0.0        0.0        0.0     0.0     0.0
"Load.S30C"          1        0.0        0.0        0.0        0.0     0.0     0.0
"Load.S29A"          1        0.0        0.0        0.0        0.0     0.0     0.0
"Load.S28A"          1        0.0        0.0        0.0        0.0     0.0     0.0
"Load.S31C"          1        0.0        0.0        0.0        0.0     0.0     0.0
"Load.S32C"          1        0.0        0.0        0.0        0.0     0.0     0.0
"Load.S33A"          1        0.0        0.0        0.0        0.0     0.0     0.0
"Load.S24C"          1        0.0        0.0        0.0        0.0     0.0     0.0
"Load.S22B"          1        0.0        0.0        0.0        0.0     0.0     0.0
"Load.S19A"          1        0.0        0.0        0.0        0.0     0.0     0.0
"Load.S20A"          1        0.0        0.0        0.0        0.0     0.0     0.0
"Load.S9A"           1        0.0        0.0        0.0        0.0     0.0     0.0
"Load.S10A"          1        0.0        0.0        0.0        0.0     0.0     0.0
"Load.S11A"          1        0.0        0.0        0.0        0.0     0.0     0.0
"Load.S12B"          1        0.0        0.0        0.0        0.0     0.0     0.0
"Load.S5C"           1        0.0        0.0        0.0        0.0     0.0     0.0
"Load.S6C"           1        0.0        0.0        0.0        0.0     0.0     0.0
"Load.S4C"           1        0.0        0.0        0.0        0.0     0.0     0.0
"Load.S2B"           1        0.0        0.0        0.0        0.0     0.0     0.0

Total Circuit Losses =   96.7 +j  193.8
